CRYSTAL
PRIMVEC
   15.000000016    0.000000000    0.000000000
    0.000000000   15.000000016    0.000000000
    0.000000000    0.000000000   15.000000016
PRIMCOORD  6
      2   1
   H      0.00000   0.00000  -0.00579   0.00000   0.00000  -0.07071
   H      0.00000   0.00000   0.75579   0.00000   0.00000   0.07071
