CRYSTAL
PRIMVEC
   15.000000016    0.000000000    0.000000000
    0.000000000   15.000000016    0.000000000
    0.000000000    0.000000000   15.000000016
PRIMCOORD  4
      2   1
   H      0.00000   0.00000  -0.00579   0.04169   0.00002   0.00000
   H      0.00000   0.00000   0.75579   0.09089   0.00005   0.00000
